7
Coordinates from potential E = 11.005547496557908
H   1.761376221946524    1.34158825200073    1.1157600860172303
H   0.820449911511587    1.389006728974086    1.2232613999855768
H   1.681083746809026    0.4225769804198892    1.3351053117430796
H   1.4885082982875577    1.1852533781036405    1.8646129996871712
H   1.3285956469978906    0.8956714404396927    0.5927520995636022
H   0.7882701231923129    0.46372741067764406    1.0183703159203124
H   0.8870838544758899    0.6427187914252307    1.804421277832075
