7
Coordinates from potential E = 1278.6256051916046
H   0.6626846174654893    3.5305962813471794    0.9018121712970147
H   0.5887517943020926    1.5968689700338106    -1.2956411413393143
H   2.7716737645645395    -0.5973408433493713    2.51262692872773
H   0.7211361269048954    1.3953756103702621    2.8270487881429487
H   0.6453949446587905    -0.5861636569232237    0.5752718833435608
H   2.7393129617187943    1.5625159118667722    0.6130344299814101
H   -1.3807197027078315    1.4337641877009975    0.8649408100605507
